[General]
network = artery.envmod.World

cmdenv-express-mode = true
cmdenv-autoflush = true
debug-on-errors = false
print-undisposed = true
**.cmdenv-log-level = off

**.scalar-recording = false
**.vector-recording = false
**.wlan[*].**.statistic-recording = false

sim-time-limit = 300s
warmup-period = 30s
*.traci.core.startTime = 25s
*.traci.core.version = -1
*.traci.launcher.typename = "PosixLauncher"
*.traci.launcher.seed = 23423
*.traci.launcher.sumocfg = "${{PROJECT_NAME}}.sumocfg"
*.traci.launcher.sumo = "sumo-gui"
*.traci.nodes.typename = "InsertionDelayNodeManager"
*.traci.mapper.typename = "traci.MultiTypeModuleMapper"
*.traci.mapper.vehicleTypes = xmldoc("vehicles.xml")
*.traci.nodes.destroyVehiclesOnCrash = true

*.withPhysicalEnvironment = true
*.physicalEnvironment.groundType = "FlatGround"

*.radioMedium.pathLossType = "Gemv2"
*.radioMedium.pathLoss.withSmallScaleVariations = false

**.identityRegistryModule = "idRegistry"

*.node[*].numRadios = 1
*.node[*].wlan[*].radio.transmitter.power = 200 mW
*.node[*].middleware.datetime = "2018-03-19 10:00:00"
*.node[*].middleware.services = xmldoc("services.xml")
*.node[*].wlan[*].mac.promiscuous = true

**.numPcapRecorders = 1
**.pcapRecorder.verbose = true
**.pcapRecorder[0].moduleNamePatterns = "*"
**.pcapRecorder[0].pcapFile = "/root/platelet/scenarios/${{PROJECT_NAME}}/simulation.pcap"
